*Heading
** Job name: Plate_hole_1 Model name: Model-1
** Generated by: Abaqus/CAE 2022
*Preprint, echo=NO, model=NO, history=NO, contact=NO
**
** PARTS
**
*Part, name=plate_1
*Node
      1,   9.33578587,   4.66421413,           0.
      2,   52.3357849,   4.66421413,           0.
      3,   52.3357849,   17.6642132,           0.
      4,   9.33578587,   17.6642132,           0.
      5,   9.33578587,  -9.33578587,           0.
      6,   52.3357849,  -9.33578587,           0.
      7,   9.33578587,   -2.3357861,           0.
      8,  -4.66421413,   17.6642132,           0.
      9,  -4.66421413,   4.66421413,           0.
     10,    2.3357861,   4.66421413,           0.
     11,   9.33578587,  -22.3357868,           0.
     12,   52.3357849,  -22.3357868,           0.
     13,  -47.6642151,   4.66421413,           0.
     14,  -47.6642151,   17.6642132,           0.
     15,  -4.66421413,  -9.33578587,           0.
     16,  -4.66421413,  -22.3357868,           0.
     17,    2.3357861,  -9.33578587,           0.
     18,  -47.6642151,  -9.33578587,           0.
     19,  -4.66421413,   -2.3357861,           0.
     20,  -47.6642151,  -22.3357868,           0.
** ... 3848 like lines cut
*Element, type=S4R
  1,    1,   29,  610,  136
  2,   29,   30,  611,  610
  3,   30,   31,  612,  611
  4,   31,   32,  613,  612
  5,   32,   33,  614,  613
  6,   33,   34,  615,  614
  7,   34,   35,  616,  615
  8,   35,   36,  617,  616
  9,   36,   37,  618,  617
 10,   37,   38,  619,  618
 11,   38,   39,  620,  619
 12,   39,   40,  621,  620
 13,   40,   41,  622,  621
 14,   41,   42,  623,  622
 15,   42,   43,  624,  623
 16,   43,   44,  625,  624
 17,   44,   45,  626,  625
 18,   45,   46,  627,  626
 19,   46,   47,  628,  627
 20,   47,   48,  629,  628
** ... 3693 like lines cut
*Nset, nset=all, generate
    1,  3868,     1
*Elset, elset=all, generate
    1,  3713,     1
*Nset, nset=left
  13,  14,  18,  20, 377, 378, 379, 380, 381, 382, 383, 384, 385, 386, 387, 388
 471, 472, 473, 474, 475, 476, 477, 478, 479, 480, 481, 482, 483, 484, 485, 486
 487, 488, 489, 490, 491, 492
*Elset, elset=left
 1722, 1765, 1808, 1851, 1894, 1937, 1980, 2023, 2066, 2109, 2152, 2195, 2238, 2424, 2467, 2510
 2553, 2596, 2639, 2682, 2725, 2768, 2811, 2854, 2939, 2982, 3025, 3068, 3111, 3154, 3197, 3240
 3283, 3326, 3369, 3412, 3455
*Nset, nset=right
   2,   3,   6,  12,  71,  72,  73,  74,  75,  76,  77,  78,  79,  80,  81,  82
 179, 180, 181, 182, 183, 184, 185, 186, 187, 188, 281, 282, 283, 284, 285, 286
 287, 288, 289, 290, 291, 292
*Elset, elset=right
   43,   86,  129,  172,  215,  258,  301,  344,  387,  430,  473,  516,  559,  602,  645,  688
  731,  774,  817,  860,  903,  946,  989, 1032, 1163, 1206, 1249, 1292, 1335, 1378, 1421, 1464
 1507, 1550, 1593, 1636, 1679
*Nset, nset=hole
  21,  22,  23,  24,  25,  26,  27,  28, 545, 546, 547, 548, 554, 555, 556, 557
 563, 564, 565, 566, 567, 573, 574, 575, 576, 587, 588, 589, 590, 591, 592, 593
 594, 595, 601, 602, 603, 604, 605, 606, 607, 608, 609
*Elset, elset=hole
 3456, 3462, 3468, 3474, 3480, 3491, 3497, 3503, 3509, 3515, 3516, 3522, 3528, 3534, 3540, 3546
 3557, 3563, 3569, 3575, 3581, 3582, 3588, 3594, 3600, 3606, 3612, 3623, 3629, 3635, 3641, 3647
 3648, 3654, 3660, 3666, 3672, 3678, 3689, 3695, 3701, 3707, 3713
*Orientation, name=Ori-1
1., 0., 0., 0., 1., 0.
3, 0.
** Region: (CompositeLayup-1-1: Generated From Layup)
*Elset, elset=CompositeLayup-1-1, generate
    1,  3713,     1
** Section: CompositeLayup-1-1
*Shell Section, elset=CompositeLayup-1-1, composite, orientation=Ori-1, layup=CompositeLayup-1, symmetric
0.25, 3, CFRP, 0., Ply-1
0.25, 3, CFRP, 45., Ply-2
0.25, 3, CFRP, -45., Ply-3
0.25, 3, CFRP, 90., Ply-4
*End Part
**  
**
** ASSEMBLY
**
*Assembly, name=Assembly
**  
*Instance, name=PLATE_1-1, part=plate_1
*End Instance
**  
*End Assembly
** 
** MATERIALS
** 
*Material, name=CFRP
*Elastic
165000., 0.318
** ----------------------------------------------------------------
** 
** STEP: load
** 
*Step, name=load, nlgeom=YES, inc=100000
*Static
1., 1., 1e-25, 1.
** 
** BOUNDARY CONDITIONS
** 
** Name: BC-1 Type: Symmetry/Antisymmetry/Encastre
*Boundary
PLATE_1-1.left, ENCASTRE
** Name: BC-2 Type: Displacement/Rotation
*Boundary
PLATE_1-1.right, 1, 1, 1.
** 
** OUTPUT REQUESTS
** 
*Restart, write, frequency=0
** 
** FIELD OUTPUT: F-Output-1
** 
*Output, field, number interval=10
*Node Output
COORD, U
*Element Output, directions=YES
EVOL, IVOL, LE, S
** 
** HISTORY OUTPUT: H-Output-4
** 
*Output, history
*Element Output, elset=PLATE_1-1.all
E11, E12, E22
** 
** HISTORY OUTPUT: H-Output-3
** 
*Node Output, nset=PLATE_1-1.right
RF1, U1, U2
** 
** HISTORY OUTPUT: H-Output-1
** 
*Output, history, variable=PRESELECT
*End Step
